Circuit: * C:\Users\ADAM\Desktop\ENEL372 Power and Analogue Electronics\Solar Car Project\LTspice files (any issues, please contact Chris Hann)\run_TL494_test_CEH_2021.asc

WARNING: Less than two connections to node VGS.  This node is used by R6.
Direct Newton iteration for .op point succeeded.
Ignoring empty pin current: Ix(u3:1)
Ignoring empty pin current: Ix(u3:2)
Ignoring empty pin current: Ix(u3:3)
Ignoring empty pin current: Ix(u3:4)
Ignoring empty pin current: Ix(u3:5)
Ignoring empty pin current: Ix(u4:1)
Ignoring empty pin current: Ix(u4:2)
Ignoring empty pin current: Ix(u4:3)
Ignoring empty pin current: Ix(u4:4)
Ignoring empty pin current: Ix(u4:5)
Ignoring empty pin current: Ix(u1:1in+)
Ignoring empty pin current: Ix(u1:1in-)
Ignoring empty pin current: Ix(u1:2in+)
Ignoring empty pin current: Ix(u1:2in-)
Ignoring empty pin current: Ix(u1:vcc)
Ignoring empty pin current: Ix(u1:gnd)
Ignoring empty pin current: Ix(u3:1)
Ignoring empty pin current: Ix(u3:2)
Ignoring empty pin current: Ix(u3:3)
Ignoring empty pin current: Ix(u3:4)
Ignoring empty pin current: Ix(u3:5)
Ignoring empty pin current: Ix(u4:1)
Ignoring empty pin current: Ix(u4:2)
Ignoring empty pin current: Ix(u4:3)
Ignoring empty pin current: Ix(u4:4)
Ignoring empty pin current: Ix(u4:5)
Ignoring empty pin current: Ix(u1:1in+)
Ignoring empty pin current: Ix(u1:1in-)
Ignoring empty pin current: Ix(u1:2in+)
Ignoring empty pin current: Ix(u1:2in-)
Ignoring empty pin current: Ix(u1:vcc)
Ignoring empty pin current: Ix(u1:gnd)

Date: Sun Oct 03 13:25:44 2021
Total elapsed time: 0.171 seconds.

tnom = 27
temp = 27
method = Gear
totiter = 3413
traniter = 3395
tranpoints = 1183
accept = 1139
rejected = 44
matrix size = 38
fillins = 18
solver = Normal
Matrix Compiler1: 2.11 KB object code size  0.5/0.3/[0.1]
Matrix Compiler2: 3.09 KB object code size  0.3/0.4/[0.3]

