Circuit: * C:\Users\ADAM\Desktop\ENEL372 Power and Analogue Electronics\Solar Car Project\LTspice files (any issues, please contact Chris Hann)\SolarCarSimulatedCircuit.asc

Direct Newton iteration failed to find .op point.  (Use ".option noopiter" to skip.)
Starting Gmin stepping
Gmin = 10
Gmin = 1.07374
Gmin = 0.115292
Gmin = 0.0123794
Gmin = 0.00132923
Gmin = 0.000142725
Gmin = 1.5325e-005
Gmin = 1.6455e-006
Gmin = 1.76685e-007
Gmin = 0
Gmin stepping succeeded in finding the operating point.

Ignoring empty pin current: Ix(u3:1)
Ignoring empty pin current: Ix(u3:2)
Ignoring empty pin current: Ix(u3:3)
Ignoring empty pin current: Ix(u3:4)
Ignoring empty pin current: Ix(u3:5)
Ignoring empty pin current: Ix(u4:1)
Ignoring empty pin current: Ix(u4:2)
Ignoring empty pin current: Ix(u4:3)
Ignoring empty pin current: Ix(u4:4)
Ignoring empty pin current: Ix(u4:5)
Ignoring empty pin current: Ix(u1:1in+)
Ignoring empty pin current: Ix(u1:1in-)
Ignoring empty pin current: Ix(u1:2in+)
Ignoring empty pin current: Ix(u1:2in-)
Ignoring empty pin current: Ix(u1:vcc)
Ignoring empty pin current: Ix(u1:gnd)
Ignoring empty pin current: Ix(u3:1)
Ignoring empty pin current: Ix(u3:2)
Ignoring empty pin current: Ix(u3:3)
Ignoring empty pin current: Ix(u3:4)
Ignoring empty pin current: Ix(u3:5)
Ignoring empty pin current: Ix(u4:1)
Ignoring empty pin current: Ix(u4:2)
Ignoring empty pin current: Ix(u4:3)
Ignoring empty pin current: Ix(u4:4)
Ignoring empty pin current: Ix(u4:5)
Ignoring empty pin current: Ix(u1:1in+)
Ignoring empty pin current: Ix(u1:1in-)
Ignoring empty pin current: Ix(u1:2in+)
Ignoring empty pin current: Ix(u1:2in-)
Ignoring empty pin current: Ix(u1:vcc)
Ignoring empty pin current: Ix(u1:gnd)
Heightened Def Con from 0.244235 to 0.244235

Date: Tue Oct 05 16:48:53 2021
Total elapsed time: 48.042 seconds.

tnom = 27
temp = 27
method = Gear
totiter = 5600992
traniter = 5600718
tranpoints = 1033966
accept = 769837
rejected = 264130
matrix size = 49
fillins = 34
solver = Normal
Matrix Compiler1: 4.59 KB object code size  0.8/0.4/[0.3]
Matrix Compiler2: 4.34 KB object code size  0.4/0.6/[0.3]

